Circuit: * C:\Users\HP\Desktop\elp305\week2\Draft34.asc

u1:dbl: Activation energy, Eg=0, too small, limited to 0.1
Direct Newton iteration failed to find .op point.  (Use ".option noopiter" to skip.)
Starting Gmin stepping
Gmin = 10
Gmin = 1.07374
Gmin = 0.115292
Gmin = 0.0123794
Gmin = 0.00132923
Gmin = 0.000142725
Gmin = 1.5325e-005
Gmin = 1.6455e-006
Gmin = 1.76685e-007
Gmin = 1.89714e-008
Gmin = 2.03704e-009
Gmin = 2.18725e-010
Gmin = 2.34854e-011
Gmin = 2.52173e-012
Gmin = 2.70769e-013
Gmin = 0
Gmin stepping succeeded in finding the operating point.


Date: Tue Feb 16 20:29:55 2021
Total elapsed time: 0.248 seconds.

tnom = 27
temp = 27
method = modified trap
totiter = 2747
traniter = 2290
tranpoints = 1086
accept = 1073
rejected = 13
matrix size = 38
fillins = 52
solver = Normal
Matrix Compiler1: 5.30 KB object code size  1.7/0.9/[0.5]
Matrix Compiler2: 3.85 KB object code size  1.7/1.6/[1.0]

